

  Version,22.2;

  Timestep,4;

  Building,
    Simple One Zone w Windows,  !- Name
    0,                       !- North Axis {deg}
    Suburbs,                 !- Terrain
    0.04,                    !- Loads Convergence Tolerance Value {W}
    0.004,                   !- Temperature Convergence Tolerance Value {deltaC}
    FullInteriorAndExterior,        !- Solar Distribution
    30,                      !- Maximum Number of Warmup Days
    6;                       !- Minimum Number of Warmup Days

  HeatBalanceAlgorithm,ConductionTransferFunction;

  

  SimulationControl,
    No,                      !- Do Zone Sizing Calculation
    No,                      !- Do System Sizing Calculation
    No,                      !- Do Plant Sizing Calculation
    No,                     !- Run Simulation for Sizing Periods
    Yes,                      !- Run Simulation for Weather File Run Periods
    No,                      !- Do HVAC Sizing Simulation for Sizing Periods
    1;                       !- Maximum Number of HVAC Sizing Simulation Passes

  RunPeriod,
    Run Period 1,            !- Name
    1,                       !- Begin Month
    1,                       !- Begin Day of Month
    ,                        !- Begin Year
    12,                      !- End Month
    31,                      !- End Day of Month
    ,                        !- End Year
    Tuesday,                 !- Day of Week for Start Day
    Yes,                     !- Use Weather File Holidays and Special Days
    Yes,                     !- Use Weather File Daylight Saving Period
    No,                      !- Apply Weekend Holiday Rule
    Yes,                     !- Use Weather File Rain Indicators
    Yes;                     !- Use Weather File Snow Indicators

  Material:NoMass,
    R13LAYER,                !- Name
    Rough,                   !- Roughness
    2.290965,                !- Thermal Resistance {m2-K/W}
    0.9,               !- Thermal Absorptance
    0.7500000,               !- Solar Absorptance
    0.7500000;               !- Visible Absorptance

  Material:NoMass,
    R31LAYER,                !- Name
    Rough,                   !- Roughness
    5.456,                   !- Thermal Resistance {m2-K/W}
    0.9,               !- Thermal Absorptance
    0.7500000,               !- Solar Absorptance
    0.7500000;               !- Visible Absorptance

  Material,
    C5 - 4 IN HW CONCRETE,   !- Name
    MediumRough,             !- Roughness
    0.1014984,               !- Thickness {m}
    1.729577,                !- Conductivity {W/m-K}
    2242.585,                !- Density {kg/m3}
    836.8000,                !- Specific Heat {J/kg-K}
    0.9,               !- Thermal Absorptance
    0.6500000,               !- Solar Absorptance
    0.6500000;               !- Visible Absorptance

  Construction,
    R13WALL,                 !- Name
    R13LAYER;                !- Outside Layer

  Construction,
    FLOOR,                   !- Name
    C5 - 4 IN HW CONCRETE;   !- Outside Layer

  Construction,
    ROOF31,                  !- Name
    R31LAYER;                !- Outside Layer

WindowMaterial:Glazing,
  glass, !- Name
  SpectralAverage,
  ,
  0.003, !- thickness
  0.8,    !- solar transmittance
  0.1, !- front solar reflectance,
  0.1; !- back solar reflectance,

Construction,
  DoubleClear,             !- Name
  glass;
   


  Site:GroundTemperature:BuildingSurface,18.89,18.92,19.02,19.12,19.21,19.23,19.07,19.32,19.09,19.21,19.13,18.96;

  Zone,
    ZONE ONE,                !- Name
    0,                       !- Direction of Relative North {deg}
    0,                       !- X Origin {m}
    0,                       !- Y Origin {m}
    0,                       !- Z Origin {m}
    1,                       !- Type
    1,                       !- Multiplier
    autocalculate,           !- Ceiling Height {m}
    autocalculate;           !- Volume {m3}

  ScheduleTypeLimits,
    Fraction,                !- Name
    0.0,                     !- Lower Limit Value
    1.0,                     !- Upper Limit Value
    CONTINUOUS;              !- Numeric Type

  GlobalGeometryRules,
    UpperLeftCorner,         !- Starting Vertex Position
    CounterClockWise,        !- Vertex Entry Direction
    World;                   !- Coordinate System

  BuildingSurface:Detailed,
    Zn001:Wall001,           !- Name
    Wall,                    !- Surface Type
    R13WALL,                 !- Construction Name
    ZONE ONE,                !- Zone Name
    ,                        !- Space Name
    Outdoors,                !- Outside Boundary Condition
    ,                        !- Outside Boundary Condition Object
    SunExposed,              !- Sun Exposure
    WindExposed,             !- Wind Exposure
    0.5000000,               !- View Factor to Ground
    4,                       !- Number of Vertices
    0,        0,  4.572000,  !- X,Y,Z ==> Vertex 1 {m}
    0,        0,  0,  !- X,Y,Z ==> Vertex 2 {m}
    15.24000, 0,  0,  !- X,Y,Z ==> Vertex 3 {m}
    15.24000, 0,  4.572000;  !- X,Y,Z ==> Vertex 4 {m}



 FenestrationSurface:Detailed,
     Zn001:Wall001:Win001,    !- Name
     Window,                  !- Surface Type
     DoubleClear,             !- Construction Name
     Zn001:Wall001,           !- Building Surface Name
     ,                        !- Outside Boundary Condition Object
     0.5000000,               !- View Factor to Ground
     ,                        !- Frame and Divider Name
     1.0,                     !- Multiplier
     4,                       !- Number of Vertices
     0.548000,0,2.5000,  !- X,Y,Z ==> Vertex 1 {m}
     0.548000,0,0.5000,  !- X,Y,Z ==> Vertex 2 {m}
     5.548000,0,0.5000,  !- X,Y,Z ==> Vertex 3 {m}
     5.548000,0,2.5000;  !- X,Y,Z ==> Vertex 4 {m}

 

  BuildingSurface:Detailed,
    Zn001:Wall002,           !- Name
    Wall,                    !- Surface Type
    R13WALL,                 !- Construction Name
    ZONE ONE,                !- Zone Name
    ,                        !- Space Name
    Outdoors,                !- Outside Boundary Condition
    ,                        !- Outside Boundary Condition Object
    SunExposed,              !- Sun Exposure
    WindExposed,             !- Wind Exposure
    0.5000000,               !- View Factor to Ground
    4,                       !- Number of Vertices
    15.24000, 0,        4.572000,  !- X,Y,Z ==> Vertex 1 {m}
    15.24000, 0,        0,  !- X,Y,Z ==> Vertex 2 {m}
    15.24000, 15.24000, 0,  !- X,Y,Z ==> Vertex 3 {m}
    15.24000, 15.24000, 4.572000;  !- X,Y,Z ==> Vertex 4 {m}



  BuildingSurface:Detailed,
    Zn001:Wall003,           !- Name
    Wall,                    !- Surface Type
    R13WALL,                 !- Construction Name
    ZONE ONE,                !- Zone Name
    ,                        !- Space Name
    Outdoors,                !- Outside Boundary Condition
    ,                        !- Outside Boundary Condition Object
    SunExposed,              !- Sun Exposure
    WindExposed,             !- Wind Exposure
    0.5000000,               !- View Factor to Ground
    4,                       !- Number of Vertices
    15.24000, 15.24000, 4.572000,   !- X,Y,Z ==> Vertex 1 {m}
    15.24000, 15.24000, 0,          !- X,Y,Z ==> Vertex 2 {m}
    0,        15.24000, 0,          !- X,Y,Z ==> Vertex 3 {m}
    0,        15.24000, 4.572000;   !- X,Y,Z ==> Vertex 4 {m}




  BuildingSurface:Detailed,
    Zn001:Wall004,           !- Name
    Wall,                    !- Surface Type
    R13WALL,                 !- Construction Name
    ZONE ONE,                !- Zone Name
    ,                        !- Space Name
    Outdoors,                !- Outside Boundary Condition
    ,                        !- Outside Boundary Condition Object
    SunExposed,              !- Sun Exposure
    WindExposed,             !- Wind Exposure
    0.5000000,               !- View Factor to Ground
    4,                       !- Number of Vertices
    0,  15.24000,   4.572000,  !- X,Y,Z ==> Vertex 1 {m}
    0,  15.24000,   0,  !- X,Y,Z ==> Vertex 2 {m}
    0,  0,          0,  !- X,Y,Z ==> Vertex 3 {m}
    0,  0,          4.572000;  !- X,Y,Z ==> Vertex 4 {m}


  BuildingSurface:Detailed,
    Zn001:Flr001,            !- Name
    Floor,                   !- Surface Type
    FLOOR,                   !- Construction Name
    ZONE ONE,                !- Zone Name
    ,                        !- Space Name
    Outdoors,                 !- Outside Boundary Condition
    ,            !- Outside Boundary Condition Object
    SunExposed,                   !- Sun Exposure
    WindExposed,                  !- Wind Exposure
    1.000000,                !- View Factor to Ground
    4,                       !- Number of Vertices
    15.24000, 0.000000, 0.0,  !- X,Y,Z ==> Vertex 1 {m}
    0.000000, 0.000000, 0.0,  !- X,Y,Z ==> Vertex 2 {m}
    0.000000, 15.24000, 0.0,  !- X,Y,Z ==> Vertex 3 {m}
    15.24000, 15.24000, 0.0;  !- X,Y,Z ==> Vertex 4 {m}




  BuildingSurface:Detailed,
    Zn001:Roof001,           !- Name
    Roof,                    !- Surface Type
    ROOF31,                  !- Construction Name
    ZONE ONE,                !- Zone Name
    ,                        !- Space Name
    Outdoors,                !- Outside Boundary Condition
    ,                        !- Outside Boundary Condition Object
    SunExposed,              !- Sun Exposure
    WindExposed,             !- Wind Exposure
    0,                       !- View Factor to Ground
    4,                       !- Number of Vertices
    0.000000, 15.24000, 4.572,  !- X,Y,Z ==> Vertex 1 {m}
    0.000000, 0.000000, 4.572,  !- X,Y,Z ==> Vertex 2 {m}
    15.24000, 0.000000, 4.572,  !- X,Y,Z ==> Vertex 3 {m}
    15.24000, 15.24000, 4.572;  !- X,Y,Z ==> Vertex 4 {m}



Output:VariableDictionary, IDF;
Output:Variable,*,Zone Mean Air Temperature,timestep; !- Zone Average [C]

SurfaceConvectionAlgorithm:Inside,TARP;
SurfaceConvectionAlgorithm:Outside,TARP;


Output:Variable,*,Surface Outside Face Net Thermal Radiation Heat Gain Rate per Area,timestep; !- Zone Average [W/m2]
Output:Variable,*,Surface Outside Face Temperature,timestep; !- Zone Average [C]
Output:Variable,*,Surface Inside Face Temperature,timestep; !- Zone Average [C]
Output:Variable,*,Surface Inside Face Net Surface Thermal Radiation Heat Gain Rate per Area,timestep; !- Zone Average [W/m2]